** CalculiX validation input for cantilever_tet4_medium
** Generated from the same structured mesh rules as validation_export.
*NODE, NSET=NALL
1, 0, 0, 0
2, 0.083333333333333329, 0, 0
3, 0.16666666666666666, 0, 0
4, 0.25, 0, 0
5, 0.33333333333333331, 0, 0
6, 0.41666666666666669, 0, 0
7, 0.5, 0, 0
8, 0.58333333333333337, 0, 0
9, 0.66666666666666663, 0, 0
10, 0.75, 0, 0
11, 0.83333333333333337, 0, 0
12, 0.91666666666666663, 0, 0
13, 1, 0, 0
14, 0, 0.050000000000000003, 0
15, 0.083333333333333329, 0.050000000000000003, 0
16, 0.16666666666666666, 0.050000000000000003, 0
17, 0.25, 0.050000000000000003, 0
18, 0.33333333333333331, 0.050000000000000003, 0
19, 0.41666666666666669, 0.050000000000000003, 0
20, 0.5, 0.050000000000000003, 0
** ... 305 like lines cut
*ELEMENT, TYPE=C3D4, ELSET=EALL
1, 1, 2, 15, 80
2, 1, 15, 14, 80
3, 1, 14, 79, 80
4, 1, 79, 66, 80
5, 1, 66, 67, 80
6, 1, 67, 2, 80
7, 2, 3, 16, 81
8, 2, 16, 15, 81
9, 2, 15, 80, 81
10, 2, 80, 67, 81
11, 2, 67, 68, 81
12, 2, 68, 3, 81
13, 3, 4, 17, 82
14, 3, 17, 16, 82
15, 3, 16, 81, 82
16, 3, 81, 68, 82
17, 3, 68, 69, 82
18, 3, 69, 4, 82
19, 4, 5, 18, 83
20, 4, 18, 17, 83
** ... 1132 like lines cut
*MATERIAL, NAME=MAT1
*ELASTIC
1, 0.29999999999999999
*SOLID SECTION, ELSET=EALL, MATERIAL=MAT1
*BOUNDARY
1, 1, 3, 0.0
14, 1, 3, 0.0
27, 1, 3, 0.0
40, 1, 3, 0.0
53, 1, 3, 0.0
66, 1, 3, 0.0
79, 1, 3, 0.0
92, 1, 3, 0.0
105, 1, 3, 0.0
118, 1, 3, 0.0
131, 1, 3, 0.0
144, 1, 3, 0.0
157, 1, 3, 0.0
170, 1, 3, 0.0
183, 1, 3, 0.0
196, 1, 3, 0.0
209, 1, 3, 0.0
222, 1, 3, 0.0
235, 1, 3, 0.0
248, 1, 3, 0.0
** ... 5 like lines cut
*STEP
*STATIC
*CLOAD
13, 3, -0.040000000000000001
26, 3, -0.040000000000000001
39, 3, -0.040000000000000001
52, 3, -0.040000000000000001
65, 3, -0.040000000000000001
78, 3, -0.040000000000000001
91, 3, -0.040000000000000001
104, 3, -0.040000000000000001
117, 3, -0.040000000000000001
130, 3, -0.040000000000000001
143, 3, -0.040000000000000001
156, 3, -0.040000000000000001
169, 3, -0.040000000000000001
182, 3, -0.040000000000000001
195, 3, -0.040000000000000001
208, 3, -0.040000000000000001
221, 3, -0.040000000000000001
234, 3, -0.040000000000000001
247, 3, -0.040000000000000001
260, 3, -0.040000000000000001
** ... 5 like lines cut
*NODE PRINT, NSET=NALL
U
*NODE FILE, NSET=NALL
U
*END STEP
