** CalculiX validation input for cantilever_hex8_small
** Generated from the same structured mesh rules as validation_export.
*NODE, NSET=NALL
1, 0, 0, 0
2, 0.5, 0, 0
3, 1, 0, 0
4, 0, 0.10000000000000001, 0
5, 0.5, 0.10000000000000001, 0
6, 1, 0.10000000000000001, 0
7, 0, 0.20000000000000001, 0
8, 0.5, 0.20000000000000001, 0
9, 1, 0.20000000000000001, 0
10, 0, 0, 0.050000000000000003
11, 0.5, 0, 0.050000000000000003
12, 1, 0, 0.050000000000000003
13, 0, 0.10000000000000001, 0.050000000000000003
14, 0.5, 0.10000000000000001, 0.050000000000000003
15, 1, 0.10000000000000001, 0.050000000000000003
16, 0, 0.20000000000000001, 0.050000000000000003
17, 0.5, 0.20000000000000001, 0.050000000000000003
18, 1, 0.20000000000000001, 0.050000000000000003
19, 0, 0, 0.10000000000000001
20, 0.5, 0, 0.10000000000000001
** ... 7 like lines cut
*ELEMENT, TYPE=C3D8, ELSET=EALL
1, 1, 2, 5, 4, 10, 11, 14, 13
2, 2, 3, 6, 5, 11, 12, 15, 14
3, 4, 5, 8, 7, 13, 14, 17, 16
4, 5, 6, 9, 8, 14, 15, 18, 17
5, 10, 11, 14, 13, 19, 20, 23, 22
6, 11, 12, 15, 14, 20, 21, 24, 23
7, 13, 14, 17, 16, 22, 23, 26, 25
8, 14, 15, 18, 17, 23, 24, 27, 26
*MATERIAL, NAME=MAT1
*ELASTIC
1, 0.29999999999999999
*SOLID SECTION, ELSET=EALL, MATERIAL=MAT1
*BOUNDARY
1, 1, 3, 0.0
4, 1, 3, 0.0
7, 1, 3, 0.0
10, 1, 3, 0.0
13, 1, 3, 0.0
16, 1, 3, 0.0
19, 1, 3, 0.0
22, 1, 3, 0.0
25, 1, 3, 0.0
*STEP
*STATIC
*CLOAD
3, 3, -0.1111111111111111
6, 3, -0.1111111111111111
9, 3, -0.1111111111111111
12, 3, -0.1111111111111111
15, 3, -0.1111111111111111
18, 3, -0.1111111111111111
21, 3, -0.1111111111111111
24, 3, -0.1111111111111111
27, 3, -0.1111111111111111
*NODE PRINT, NSET=NALL
U
*NODE FILE, NSET=NALL
U
*END STEP
