*Heading
** Generated from validation_export case cantilever_hex8_medium.
** Node labels are C++ 0-based node indices plus one.
** Element formulation: C3D8 full integration, not C3D8R.
*Preprint, echo=NO, model=NO, history=NO, contact=NO
*Node
1, 0, 0, 0
2, 0.083333333333333329, 0, 0
3, 0.16666666666666666, 0, 0
4, 0.25, 0, 0
5, 0.33333333333333331, 0, 0
6, 0.41666666666666669, 0, 0
7, 0.5, 0, 0
8, 0.58333333333333337, 0, 0
9, 0.66666666666666663, 0, 0
10, 0.75, 0, 0
11, 0.83333333333333337, 0, 0
12, 0.91666666666666663, 0, 0
13, 1, 0, 0
14, 0, 0.050000000000000003, 0
15, 0.083333333333333329, 0.050000000000000003, 0
16, 0.16666666666666666, 0.050000000000000003, 0
17, 0.25, 0.050000000000000003, 0
18, 0.33333333333333331, 0.050000000000000003, 0
19, 0.41666666666666669, 0.050000000000000003, 0
20, 0.5, 0.050000000000000003, 0
** ... 305 like lines cut
*Element, type=C3D8, elset=EALL
1, 1, 2, 15, 14, 66, 67, 80, 79
2, 2, 3, 16, 15, 67, 68, 81, 80
3, 3, 4, 17, 16, 68, 69, 82, 81
4, 4, 5, 18, 17, 69, 70, 83, 82
5, 5, 6, 19, 18, 70, 71, 84, 83
6, 6, 7, 20, 19, 71, 72, 85, 84
7, 7, 8, 21, 20, 72, 73, 86, 85
8, 8, 9, 22, 21, 73, 74, 87, 86
9, 9, 10, 23, 22, 74, 75, 88, 87
10, 10, 11, 24, 23, 75, 76, 89, 88
11, 11, 12, 25, 24, 76, 77, 90, 89
12, 12, 13, 26, 25, 77, 78, 91, 90
13, 14, 15, 28, 27, 79, 80, 93, 92
14, 15, 16, 29, 28, 80, 81, 94, 93
15, 16, 17, 30, 29, 81, 82, 95, 94
16, 17, 18, 31, 30, 82, 83, 96, 95
17, 18, 19, 32, 31, 83, 84, 97, 96
18, 19, 20, 33, 32, 84, 85, 98, 97
19, 20, 21, 34, 33, 85, 86, 99, 98
20, 21, 22, 35, 34, 86, 87, 100, 99
** ... 172 like lines cut
*Nset, nset=FIXED
1, 14, 27, 40, 53, 66, 79, 92, 105, 118, 131, 144, 157, 170, 183, 196
209, 222, 235, 248, 261, 274, 287, 300, 313
*Nset, nset=LOADED
13, 26, 39, 52, 65, 78, 91, 104, 117, 130, 143, 156, 169, 182, 195, 208
221, 234, 247, 260, 273, 286, 299, 312, 325
*Nset, nset=PROBES
169, 163, 157
*Material, name=MAT_LINEAR_ELASTIC
*Elastic
1, 0.29999999999999999
*Solid Section, elset=EALL, material=MAT_LINEAR_ELASTIC
,
*Boundary
FIXED, 1, 3, 0.
*Step, name=StaticStep, nlgeom=NO
*Static
1., 1., 1e-05, 1.
*Cload
13, 3, -0.040000000000000001
26, 3, -0.040000000000000001
39, 3, -0.040000000000000001
52, 3, -0.040000000000000001
65, 3, -0.040000000000000001
78, 3, -0.040000000000000001
91, 3, -0.040000000000000001
104, 3, -0.040000000000000001
117, 3, -0.040000000000000001
130, 3, -0.040000000000000001
143, 3, -0.040000000000000001
156, 3, -0.040000000000000001
169, 3, -0.040000000000000001
182, 3, -0.040000000000000001
195, 3, -0.040000000000000001
208, 3, -0.040000000000000001
221, 3, -0.040000000000000001
234, 3, -0.040000000000000001
247, 3, -0.040000000000000001
260, 3, -0.040000000000000001
** ... 5 like lines cut
*Output, field
*Node Output, nset=PROBES
U
*End Step
